35   
Scan Cycle 1/19 ; Dihedral 16-21-22-27 = 180.00 ; Iteration 16 Energy -1710.56304072
C        4.3337233174   -0.0184402636    0.1149837020
C        4.4311983492    1.2834769643   -0.3901590618
H        3.5458149776    1.9132731248   -0.5258647639
N        5.6084013909    1.7934274366   -0.7309325990
C        6.7171195053    1.0420220020   -0.5876035123
H        7.6588575278    1.5193775432   -0.8804720109
C        6.7239900484   -0.2651336809   -0.1106277721
H        7.6570889687   -0.8268563199   -0.0297021354
C        5.4904204773   -0.8298243318    0.2522049418
C        5.0541918434   -2.1053698575    0.7488753002
H        5.6746082257   -2.9688502734    0.9770579312
C        3.6943802063   -2.0307365808    0.8973153643
H        2.9870864973   -2.7719548818    1.2639237679
N        3.2356848835   -0.7726700699    0.5231213981
C        1.9053734352   -0.3580046688    0.5364736005
S        0.6577185590   -1.4053336406   -0.0944339263
C        1.3910225160    0.8430244361    0.9673534073
H        2.0033839260    1.6293044989    1.4067859060
C       -0.0169724083    0.9195129842    0.8048376170
H       -0.6094937201    1.7863961365    1.1001208730
C       -0.5801250921   -0.2205705305    0.2642115908
C       -1.9715545325   -0.5118697812   -0.0013946590
C       -2.5223753012   -1.6691773795   -0.5352484553
H       -1.9221425599   -2.5312913267   -0.8293085216
C       -3.9290304425   -1.6099986333   -0.6561556086
H       -4.5613218283   -2.4058496437   -1.0497112071
S       -3.2109130971    0.6610465206    0.3521718937
C       -4.4548221955   -0.4121416023   -0.2188618218
C       -5.8778487494   -0.0482397643   -0.2199276062
O       -6.7694317136   -0.7676656858   -0.6073561275
O       -6.0739478120    1.1944016305    0.2671648267
C       -7.4253392152    1.6460773523    0.3087556289
H       -8.0383020441    0.9879365461    0.9432927927
H       -7.3966217469    2.6597370584    0.7266998196
H       -7.8638883764    1.6609726102   -0.7006806646
35   
Scan Cycle 2/19 ; Dihedral 16-21-22-27 = 190.00 ; Iteration 13 Energy -1710.56306199
C        4.3217933321   -0.0339535901    0.1195084341
C        4.4064865567    1.2986835193   -0.3007214863
H        3.5167792447    1.9318599946   -0.3811604202
N        5.5762715525    1.8353887962   -0.6255571274
C        6.6899011704    1.0814653942   -0.5490069847
H        7.6251478249    1.5813619273   -0.8245583830
C        6.7091474501   -0.2540560726   -0.1588634281
H        7.6454570669   -0.8154911969   -0.1293934601
C        5.4835503456   -0.8470688053    0.1853282037
C        5.0599284853   -2.1544025974    0.6041486261
H        5.6871021147   -3.0280034941    0.7655518000
C        3.7023504802   -2.0960766945    0.7782058296
H        3.0035990250   -2.8629840504    1.1063102236
N        3.2331328300   -0.8184287651    0.4942759507
C        1.9016768493   -0.4117080198    0.5560041169
S        0.6482019468   -1.4200852504   -0.1246345214
C        1.3899741633    0.7562699950    1.0724964021
H        2.0063907798    1.5146282957    1.5534145919
C       -0.0213265628    0.8347308255    0.9413958802
H       -0.6139658628    1.6720991142    1.3119467192
C       -0.5885711744   -0.2716011040    0.3387121603
C       -1.9836129067   -0.5553365915    0.0829109095
C       -2.5570053034   -1.7460489272   -0.3424255797
H       -1.9755010114   -2.6487700722   -0.5343161876
C       -3.9609159446   -1.6663124062   -0.4833688095
H       -4.6094053676   -2.4829263871   -0.8006976487
S       -3.1958933850    0.6772524004    0.2990632985
C       -4.4615698370   -0.4199741489   -0.1693374617
C       -5.8759122485   -0.0264411409   -0.2169973641
O       -6.7811485166   -0.7594193670   -0.5423671224
O       -6.0466124534    1.2609766842    0.1481144511
C       -7.3873440917    1.7449480413    0.1335395387
H       -8.0199444059    1.1650353679    0.8227705337
H       -7.3379095444    2.7932619806    0.4522904494
H       -7.8183369923    1.6723545465   -0.8766461746
35   
Scan Cycle 3/19 ; Dihedral 16-21-22-27 = 200.00 ; Iteration 20 Energy -1710.56302505
C        4.3140590564   -0.1007416020    0.1525254968
C        4.3890590226    1.2561194894   -0.1837115143
H        3.4972156908    1.8910021960   -0.2064688381
N        5.5516679529    1.8151160470   -0.4963918319
C        6.6674095666    1.0604127567   -0.4894632779
H        7.5965303451    1.5790208342   -0.7507948070
C        6.6957463726   -0.2971131976   -0.1853601487
H        7.6331192801   -0.8570167629   -0.2097389905
C        5.4777622595   -0.9137474126    0.1441500027
C        5.0637980983   -2.2459395652    0.4873179811
H        5.6948516154   -3.1266260131    0.5807906903
C        3.7097569111   -2.2018117419    0.6909576971
H        3.0182515390   -2.9895659881    0.9830183399
N        3.2338327322   -0.9098744874    0.4977092305
C        1.9031899076   -0.5106035888    0.6105247131
S        0.6377070438   -1.4748499913   -0.1100256206
C        1.4007481627    0.6201456868    1.2121547048
H        2.0261497283    1.3460881890    1.7301422052
C       -0.0136507513    0.7022047055    1.1175560664
H       -0.6022176288    1.5073732449    1.5590442759
C       -0.5903371332   -0.3654796321    0.4577488010
C       -1.9899476329   -0.6352290277    0.2084071388
C       -2.5910916280   -1.8429869655   -0.1178440249
H       -2.0332150545   -2.7757443475   -0.2098887553
C       -3.9902369089   -1.7362765864   -0.2883207037
H       -4.6591046982   -2.5601444366   -0.5373636840
S       -3.1659124321    0.6471863516    0.2855590240
C       -4.4579258884   -0.4528482481   -0.0955859567
C       -5.8602577674   -0.0268353308   -0.1958284736
O       -6.7824335897   -0.7607939371   -0.4666715340
O       -5.9981385327    1.2921078659    0.0514171451
C       -7.3243159790    1.8094781839   -0.0235468763
H       -7.9804090455    1.3108720836    0.7061473835
H       -7.2483816399    2.8802690225    0.2014927288
H       -7.7465043399    1.6590062639   -1.0288366251
35   
Scan Cycle 4/19 ; Dihedral 16-21-22-27 = 210.00 ; Iteration 26 Energy -1710.56275770
C        4.2875170742   -0.2635734972    0.2292173296
C        4.3645840652    1.1109491714   -0.0248641952
H        3.4765658120    1.7506725291    0.0096084668
N        5.5242846909    1.6819368781   -0.3264107618
C        6.6350515136    0.9223442055   -0.3883235356
H        7.5621180018    1.4510623703   -0.6363637315
C        6.6606959633   -0.4513448567   -0.1682811472
H        7.5937786245   -1.0135874519   -0.2457568188
C        5.4455669676   -1.0806485068    0.1476740268
C        5.0299016537   -2.4290396229    0.4174385703
H        5.6568983466   -3.3171478546    0.4441990441
C        3.6804486768   -2.3902099351    0.6508246251
H        2.9897027447   -3.1906715832    0.9080400269
N        3.2092460279   -1.0864940904    0.5462858954
C        1.8834497974   -0.6875124686    0.7099888965
S        0.5973199199   -1.5951379646   -0.0461745933
C        1.4010862031    0.4050304484    1.3931970369
H        2.0420827969    1.0919385786    1.9443962372
C       -0.0148789003    0.5007767739    1.3336194644
H       -0.5910896821    1.2777530492    1.8373852199
C       -0.6106485435   -0.5212646044    0.6218475645
C       -2.0171021211   -0.7609111938    0.3726696422
C       -2.6578703598   -1.9673669596    0.1303720140
H       -2.1344853117   -2.9242580918    0.1311894284
C       -4.0481912952   -1.8209863330   -0.0815195895
H       -4.7453620828   -2.6362132983   -0.2754328360
S       -3.1392027748    0.5686037573    0.3089636091
C       -4.4672068167   -0.5086211334   -0.0061934938
C       -5.8499306966   -0.0396332809   -0.1711820572
O       -6.7948786575   -0.7579020223   -0.4023521276
O       -5.9403420740    1.2992644038   -0.0347629209
C       -7.2433470948    1.8586253649   -0.1812202938
H       -7.9325958635    1.4465899980    0.5715552313
H       -7.1294374725    2.9405854495   -0.0420373193
H       -7.6516170964    1.6424385066   -1.1802485514
35   
Scan Cycle 5/19 ; Dihedral 16-21-22-27 = 220.00 ; Iteration 24 Energy -1710.56215345
C        4.2697711104   -0.3201330495    0.2254890193
C        4.3402168717    1.0675986329    0.0548619469
H        3.4534361465    1.7025031793    0.1526035668
N        5.4915100674    1.6579221692   -0.2415732586
C        6.6001733305    0.9052688830   -0.3797420560
H        7.5203696130    1.4497100400   -0.6192214511
C        6.6315406451   -0.4793073789   -0.2455897622
H        7.5622578355   -1.0341540063   -0.3822612771
C        5.4251879565   -1.1288767450    0.0630658878
C        5.0166898469   -2.4918871038    0.2603066806
H        5.6440077656   -3.3790486310    0.2156469367
C        3.6738553605   -2.4694378407    0.5313738304
H        2.9899359908   -3.2852041204    0.7567737328
N        3.2003224848   -1.1625637061    0.5197775289
C        1.8790518594   -0.7760893796    0.7427205553
S        0.5727116016   -1.6336694634   -0.0361396888
C        1.4158942298    0.2691660387    1.5082251063
H        2.0721298537    0.9192820972    2.0855805203
C       -0.0016981213    0.3670202158    1.4928386353
H       -0.5655322260    1.1104511765    2.0574414643
C       -0.6156481865   -0.6101667889    0.7365171049
C       -2.0294395612   -0.8247616908    0.4940466729
C       -2.7051926655   -2.0244181364    0.3303467390
H       -2.2130021223   -2.9939450957    0.4151857672
C       -4.0860617639   -1.8491487317    0.0789315553
H       -4.8080346591   -2.6533250724   -0.0637738936
S       -3.1014393881    0.5319777105    0.2977157878
C       -4.4602489674   -0.5215281316    0.0426357668
C       -5.8240353523   -0.0223810758   -0.1840756315
O       -6.7883736723   -0.7257411799   -0.3774321429
O       -5.8717463879    1.3250910121   -0.1528572160
C       -7.1527006362    1.9131658477   -0.3665713568
H       -7.8675989865    1.5830987300    0.4024989506
H       -7.0047572432    2.9984048604   -0.3088660175
H       -7.5515240248    1.6334454976   -1.3535654303
35   
Scan Cycle 6/19 ; Dihedral 16-21-22-27 = 230.00 ; Iteration 21 Energy -1710.56120393
C        4.2540314075   -0.3698257755    0.2295568924
C        4.3226415649    1.0258103406    0.1433816046
H        3.4398472249    1.6535658038    0.3035598280
N        5.4669010261    1.6330769202   -0.1459341725
C        6.5701768526    0.8900650473   -0.3592689235
H        7.4848293883    1.4480637325   -0.5885838129
C        6.6024789887   -0.5001424408   -0.3117632091
H        7.5283287387   -1.0456882218   -0.5066048016
C        5.4033443972   -1.1673297907   -0.0125272957
C        4.9974837870   -2.5397452335    0.1108514907
H        5.6216679712   -3.4226855366   -0.0048588989
C        3.6621004515   -2.5335479020    0.4176478893
H        2.9825181255   -3.3613939149    0.6096545532
N        3.1910785320   -1.2283931039    0.4990168212
C        1.8764690191   -0.8554474370    0.7795131665
S        0.5480534280   -1.6585063187   -0.0190041455
C        1.4364920302    0.1378360632    1.6236917660
H        2.1095245645    0.7478833464    2.2250104367
C        0.0186648841    0.2388443566    1.6505822850
H       -0.5294718901    0.9480739512    2.2717239603
C       -0.6165783575   -0.6883755663    0.8518708431
C       -2.0387010725   -0.8719275848    0.6157122806
C       -2.7536278834   -2.0558350876    0.5304296959
H       -2.2968314572   -3.0317654467    0.6984084678
C       -4.1228433962   -1.8526531447    0.2367015691
H       -4.8716365042   -2.6393945636    0.1434263447
S       -3.0547742868    0.5013857982    0.2860374174
C       -4.4463511137   -0.5196396573    0.0868025957
C       -5.7875585373    0.0072532241   -0.2058890589
O       -6.7729524566   -0.6754128947   -0.3631799153
O       -5.7869420924    1.3535710451   -0.2815195782
C       -7.0418270070    1.9672508373   -0.5664682169
H       -7.7815188459    1.7238503059    0.2114031900
H       -6.8555777365    3.0478318346   -0.5907123003
H       -7.4331579638    1.6246525930   -1.5364852374
35   
Scan Cycle 7/19 ; Dihedral 16-21-22-27 = 240.00 ; Iteration 22 Energy -1710.55999697
C        4.2470989611   -0.4369864271    0.2629237450
C        4.3180756460    0.9612004652    0.2654649695
H        3.4412369149    1.5787186388    0.4866169512
N        5.4571889950    1.5840331340   -0.0107443317
C        6.5529114189    0.8545311373   -0.2972935830
H        7.4637740825    1.4246094555   -0.5115085682
C        6.5820007426   -0.5358738397   -0.3401894086
H        7.5014189686   -1.0691965585   -0.5912470439
C        5.3880502894   -1.2191090481   -0.0566879016
C        4.9808561825   -2.5959048331   -0.0123589943
H        5.5993625951   -3.4706240166   -0.1991635627
C        3.6528706598   -2.6071790668    0.3251601330
H        2.9751689442   -3.4444998734    0.4789281596
N        3.1880695720   -1.3092987240    0.5012252647
C        1.8811059748   -0.9526037450    0.8353232673
S        0.5316865256   -1.6969896962    0.0163213753
C        1.4648520581   -0.0176907350    1.7545737991
H        2.1540158185    0.5487689916    2.3798311227
C        0.0478002297    0.0858938863    1.8193745363
H       -0.4839343354    0.7576103471    2.4941037361
C       -0.6087761680   -0.7849604579    0.9774270105
C       -2.0394284789   -0.9370570046    0.7494025898
C       -2.7944704780   -2.0977253458    0.7531224339
H       -2.3733346334   -3.0709364539    1.0075415702
C       -4.1521748155   -1.8735197587    0.4208616975
H       -4.9277734509   -2.6386563498    0.3836141862
S       -3.0004157760    0.4367166408    0.2848355360
C       -4.4244306585   -0.5481083892    0.1504952646
C       -5.7427072361   -0.0023776352   -0.2077018538
O       -6.7496772963   -0.6617883363   -0.3202457030
O       -5.6928013761    1.3310508236   -0.4001413716
C       -6.9212321002    1.9609089161   -0.7564773531
H       -7.6785192910    1.8124676772    0.0283355203
H       -6.6957546732    3.0280320908   -0.8718345282
H       -7.3128497312    1.5485360683   -1.6988201510
35   
Scan Cycle 8/19 ; Dihedral 16-21-22-27 = 250.00 ; Iteration 13 Energy -1710.55869029
C        4.2322440960   -0.4291601635    0.2599080527
C        4.3090703304    0.9648478861    0.3640485970
H        3.4397888120    1.5663863490    0.6496770230
N        5.4443929030    1.6035862660    0.1093892825
C        6.5305803336    0.8944720812   -0.2543233333
H        7.4388318594    1.4766129447   -0.4460247913
C        6.5530626398   -0.4890390914   -0.4001152136
H        7.4646284285   -1.0046661239   -0.7099209463
C        5.3627960493   -1.1884250959   -0.1414538010
C        4.9510857852   -2.5637068960   -0.1894696733
H        5.5617671367   -3.4238466436   -0.4536880239
C        3.6306980387   -2.5964667545    0.1755008874
H        2.9530223042   -3.4411314904    0.2819709901
N        3.1752092205   -1.3140167292    0.4566525187
C        1.8767883550   -0.9795693111    0.8441068094
S        0.5070695640   -1.6574590017    0.0021139195
C        1.4847167414   -0.1152414618    1.8395475569
H        2.1895107969    0.4010145357    2.4903456075
C        0.0691819167   -0.0112451008    1.9407051076
H       -0.4455298388    0.6138132131    2.6711374975
C       -0.6088413809   -0.8136773418    1.0508947387
C       -2.0482198879   -0.9411570618    0.8396377937
C       -2.8380455772   -2.0714094373    0.9539094941
H       -2.4448361132   -3.0286424348    1.2977894419
C       -4.1892983651   -1.8393973108    0.5989688100
H       -4.9878596665   -2.5806714207    0.6333324651
S       -2.9678962849    0.4108199653    0.2453615675
C       -4.4202200200   -0.5388243204    0.2005794811
C       -5.7221814680    0.0089824313   -0.2125385357
O       -6.7484346726   -0.6278689571   -0.2618063378
O       -5.6322499378    1.3146566590   -0.5347839531
C       -6.8415564633    1.9434599856   -0.9533307013
H       -7.6019264792    1.8956731060   -0.1589884890
H       -6.5839381743    2.9867732862   -1.1723991911
H       -7.2465964871    1.4525979713   -1.8513253738
35   
Scan Cycle 9/19 ; Dihedral 16-21-22-27 = 260.00 ; Iteration 16 Energy -1710.55756018
C        4.2205736834   -0.4350387959    0.2511826090
C        4.3113098035    0.9452487281    0.4669431700
H        3.4521869238    1.5277500640    0.8158472751
N        5.4477584912    1.5942221233    0.2453392099
C        6.5214889334    0.9089653354   -0.1934841728
H        7.4314865349    1.4980490868   -0.3530314252
C        6.5295118680   -0.4582680092   -0.4512285496
H        7.4313530147   -0.9537229356   -0.8173169145
C        5.3376148971   -1.1676449801   -0.2296651020
C        4.9131194616   -2.5314415077   -0.3814383096
H        5.5117418426   -3.3719016788   -0.7247517117
C        3.5986772212   -2.5837738554    0.0024875189
H        2.9152999546   -3.4291327376    0.0518000728
N        3.1593444148   -1.3250410123    0.3941022262
C        1.8699789705   -1.0128624953    0.8285397792
S        0.4807579265   -1.6011405227   -0.0478740837
C        1.5025012799   -0.2339588061    1.9005035286
H        2.2224905772    0.2169854037    2.5824973972
C        0.0893572571   -0.1211710350    2.0291871452
H       -0.4079753548    0.4465059188    2.8162854497
C       -0.6103786681   -0.8307226664    1.0806947309
C       -2.0579708795   -0.9357387746    0.8911771617
C       -2.8813740640   -2.0165901671    1.1470189751
H       -2.5112521902   -2.9427329947    1.5878963967
C       -4.2315438605   -1.7806723650    0.7883329393
H       -5.0521399781   -2.4868602685    0.9158838884
S       -2.9466107802    0.3747011256    0.1699986239
C       -4.4274856139   -0.5262587658    0.2488742352
C       -5.7187833462    0.0138754793   -0.2074772876
O       -6.7651474397   -0.5899321984   -0.1687381928
O       -5.5933773336    1.2701073131   -0.6787787457
C       -6.7894588399    1.8872320858   -1.1496810823
H       -7.5370422423    1.9549756624   -0.3447463113
H       -6.5029713025    2.8898399416   -1.4895822064
H       -7.2251048649    1.3114076960   -1.9803598504
35   
Scan Cycle 10/19 ; Dihedral 16-21-22-27 = 270.00 ; Iteration 15 Energy -1710.55702405
C        4.2233552143   -0.4460453608    0.2514050477
C        4.3406065863    0.9056418085    0.5966469333
H        3.4948581001    1.4668454476    1.0076120747
N        5.4867626092    1.5532009043    0.4269775056
C        6.5444631116    0.8945055568   -0.0852849621
H        7.4635294454    1.4805824149   -0.1966724811
C        6.5258957406   -0.4418615086   -0.4720563131
H        7.4157335791   -0.9155855556   -0.8922904249
C        5.3231683458   -1.1485522111   -0.3077159666
C        4.8728879701   -2.4840519700   -0.5849359827
H        5.4534774341   -3.2980674482   -1.0125798805
C        3.5607125325   -2.5500142000   -0.1953399903
H        2.8626058797   -3.3843531827   -0.2204381874
N        3.1473294378   -1.3271401062    0.3187817899
C        1.8670321078   -1.0358402210    0.7929289133
S        0.4606953925   -1.5098951349   -0.1246706052
C        1.5222414635   -0.3565845805    1.9375101203
H        2.2554103744    0.0131231709    2.6535031421
C        0.1123393091   -0.2254315729    2.0859036353
H       -0.3686698006    0.2735287447    2.9277646764
C       -0.6073261165   -0.8153859738    1.0733116583
C       -2.0608101493   -0.9049778518    0.9105021031
C       -2.9094623851   -1.9071756076    1.3413687850
H       -2.5525988102   -2.7804126994    1.8882984861
C       -4.2640164973   -1.6709174182    0.9984586095
H       -5.1014528699   -2.3248580290    1.2422177845
S       -2.9344943670    0.3385553536    0.0634613027
C       -4.4384768021   -0.4924253205    0.3032990859
C       -5.7270910970    0.0271728305   -0.1843686442
O       -6.7897724250   -0.5285086523   -0.0335055086
O       -5.5786029865    1.2038071069   -0.8238989766
C       -6.7701198001    1.7947914535   -1.3380603747
H       -7.4869871069    1.9967672082   -0.5276976030
H       -6.4639225332    2.7317495809   -1.8188493394
H       -7.2520613949    1.1287024264   -2.0697935316
35   
Scan Cycle 11/19 ; Dihedral 16-21-22-27 = 280.00 ; Iteration 13 Energy -1710.55730870
C        4.2298177826   -0.4536606927    0.2543801140
C        4.3780623572    0.8536435029    0.7328104914
H        3.5466362461    1.3883850773    1.2038911734
N        5.5372179255    1.4906394901    0.6211924347
C        6.5779870550    0.8647201726    0.0380588657
H        7.5091479785    1.4392760913   -0.0202844126
C        6.5284963412   -0.4252506092   -0.4809011723
H        7.4058553913   -0.8729601269   -0.9527253410
C        5.3115081475   -1.1193213377   -0.3800398960
C        4.8311976913   -2.4104735710   -0.7867807800
H        5.3920945414   -3.1893796059   -1.2979430032
C        3.5198458362   -2.4877772610   -0.3966100477
H        2.8039335122   -3.3007198332   -0.5002816971
N        3.1353264579   -1.3143813161    0.2405202387
C        1.8636212694   -1.0458946157    0.7496211218
S        0.4435871521   -1.3944801188   -0.2030382341
C        1.5382845506   -0.4763078257    1.9579846945
H        2.2823404719   -0.1953134577    2.7025073028
C        0.1326484731   -0.3255001144    2.1253847537
H       -0.3342818984    0.0967071746    3.0157269468
C       -0.6036204099   -0.7825660656    1.0570722029
C       -2.0591830250   -0.8618987875    0.9212343106
C       -2.9207657116   -1.7592121969    1.5240757584
H       -2.5679724931   -2.5626955420    2.1712847293
C       -4.2803358344   -1.5227861762    1.2019260696
H       -5.1263737827   -2.1093775566    1.5603948088
S       -2.9299851820    0.2957126536   -0.0430732153
C       -4.4470985682   -0.4446223338    0.3580447222
C       -5.7374563613    0.0452791279   -0.1549889599
O       -6.8095190151   -0.4465658016    0.1089360453
O       -5.5790150922    1.1150129790   -0.9587356765
C       -6.7714881924    1.6693773294   -1.5101210195
H       -7.4504216324    2.0069201128   -0.7123214951
H       -6.4565202656    2.5190677587   -2.1278826437
H       -7.3005762529    0.9248808982   -2.1242603004
35   
Scan Cycle 12/19 ; Dihedral 16-21-22-27 = 290.00 ; Iteration 21 Energy -1710.55827428
C        4.2589359182   -0.4127462412    0.2515439588
C        4.4276872337    0.8416569699    0.8497456915
H        3.6074619504    1.3388386647    1.3781037410
N        5.5933696725    1.4733767226    0.7862881250
C        6.6207621173    0.8939674384    0.1353769753
H        7.5582314610    1.4610046565    0.1215301446
C        6.5505136051   -0.3404085193   -0.5027468975
H        7.4176823013   -0.7511534310   -1.0243989313
C        5.3262204455   -1.0272033814   -0.4547960866
C        4.8263576206   -2.2684810453   -0.9769934956
H        5.3728369051   -3.0015399002   -1.5656933073
C        3.5180651772   -2.3678932077   -0.5818023056
H        2.7915631140   -3.1595254599   -0.7541426645
N        3.1538977367   -1.2561064135    0.1679979736
C        1.8906292798   -1.0236196072    0.7137065498
S        0.4573435758   -1.2677277905   -0.2522792840
C        1.5834060994   -0.5635366620    1.9726112338
H        2.3380074384   -0.3591729023    2.7313563345
C        0.1821297533   -0.4100466902    2.1672496078
H       -0.2710021668   -0.0638089892    3.0966136509
C       -0.5700847899   -0.7513914761    1.0661142196
C       -2.0245832804   -0.8229545648    0.9537888186
C       -2.8898322034   -1.6162027598    1.6854692953
H       -2.5372068684   -2.3481991624    2.4125775433
C       -4.2517069158   -1.3844724487    1.3716076310
H       -5.1002428446   -1.9047937508    1.8161752547
S       -2.8964878860    0.2410907580   -0.1127884658
C       -4.4180588792   -0.4112710683    0.4083978908
C       -5.7100279832    0.0422415432   -0.1322012079
O       -6.7852974116   -0.3877541923    0.2141566680
O       -5.5494728860    1.0019158009   -1.0644251780
C       -6.7436195736    1.5134744797   -1.6522708048
H       -7.3949977919    1.9614686244   -0.8865169204
H       -6.4266975711    2.2741152718   -2.3760129745
H       -7.3035404831    0.7127472658   -2.1589500695
35   
Scan Cycle 13/19 ; Dihedral 16-21-22-27 = 300.00 ; Iteration 13 Energy -1710.55949939
C        4.2543274842   -0.4132496466    0.2521723603
C        4.4488616606    0.7852581964    0.9489727100
H        3.6426853767    1.2485770019    1.5273514065
N        5.6228402757    1.4040931280    0.9217635072
C        6.6334010180    0.8662743014    0.2115812979
H        7.5788414382    1.4197204673    0.2316860829
C        6.5370635930   -0.3102636680   -0.5248700346
H        7.3914758678   -0.6884291451   -1.0903601286
C        5.3035032041   -0.9818693957   -0.5168347329
C        4.7789261054   -2.1688978399   -1.1326596098
H        5.3071997967   -2.8582766702   -1.7870801213
C        3.4744199290   -2.2828469157   -0.7291551494
H        2.7344441215   -3.0478362971   -0.9559236556
N        3.1359767188   -1.2318183739    0.1146525465
C        1.8834781417   -1.0282149948    0.6947406884
S        0.4346448122   -1.1752472496   -0.2685247394
C        1.5982717901   -0.6666499526    1.9906886254
H        2.3652794006   -0.5330151638    2.7527250920
C        0.2027919596   -0.5082797113    2.2157825419
H       -0.2327957620   -0.2263723932    3.1747560349
C       -0.5685458446   -0.7485403607    1.0999134481
C       -2.0215416081   -0.7927737385    1.0062969826
C       -2.8976027869   -1.4826696933    1.8264520075
H       -2.5546343186   -2.1506866461    2.6169523923
C       -4.2565356373   -1.2460422134    1.5063043919
H       -5.1119799826   -1.6965798022    2.0099209716
S       -2.8806532125    0.1834058198   -0.1514471327
C       -4.4116562943   -0.3729860864    0.4495790686
C       -5.6978676080    0.0545518540   -0.1233915189
O       -6.7795566096   -0.3076247340    0.2767384324
O       -5.5244890731    0.9060649836   -1.1535786976
C       -6.7124382561    1.3843184697   -1.7805431403
H       -7.3422902729    1.9284108890   -1.0603728821
H       -6.3853685006    2.0551364505   -2.5842047358
H       -7.2992420862    0.5497794591   -2.1936018468
35   
Scan Cycle 14/19 ; Dihedral 16-21-22-27 = 310.00 ; Iteration 21 Energy -1710.56062952
C        4.2014447390   -0.5497277450    0.1611068765
C        4.4404639414    0.5883734367    0.9404255060
H        3.6569056062    1.0291832694    1.5655914274
N        5.6307362248    1.1758874997    0.9376884454
C        6.6143772557    0.6652624296    0.1718622050
H        7.5751277877    1.1902394270    0.2156037879
C        6.4733978961   -0.4505736132   -0.6472668904
H        7.3077240482   -0.8085172170   -1.2543717249
C        5.2218385610   -1.0877204184   -0.6663769764
C        4.6544549358   -2.2114668638   -1.3583605697
H        5.1527335197   -2.8643317158   -2.0711492624
C        3.3539002313   -2.3201255521   -0.9410195549
H        2.5893439851   -3.0462450006   -1.2100846290
N        3.0584657975   -1.3256820489   -0.0161621023
C        1.8220905755   -1.1325007923    0.6001149159
S        0.3541377606   -1.1714561154   -0.3452195361
C        1.5674441397   -0.8593867250    1.9240088833
H        2.3501067548   -0.8012430228    2.6795797757
C        0.1815051865   -0.6800736858    2.1852148415
H       -0.2288245482   -0.4510233222    3.1690324473
C       -0.6149832610   -0.8205071566    1.0686847354
C       -2.0664519687   -0.8073425062    0.9975358389
C       -2.9583514172   -1.3865472579    1.8852639789
H       -2.6326905455   -1.9983014908    2.7269168992
C       -4.3104416657   -1.1259648679    1.5580209529
H       -5.1757572598   -1.4958726268    2.1082945564
S       -2.9029405173    0.0919683018   -0.2368308094
C       -4.4466979843   -0.3482363991    0.4266424687
C       -5.7219336817    0.0739676222   -0.1724804219
O       -6.8119796702   -0.2072593834    0.2683489014
O       -5.5284790518    0.8196349508   -1.2787137916
C       -6.7047037625    1.2841891422   -1.9370836111
H       -7.3059676493    1.9144194438   -1.2642660365
H       -6.3619987202    1.8669930709   -2.8006609522
H       -7.3266717545    0.4387436331   -2.2685111725
35   
Scan Cycle 15/19 ; Dihedral 16-21-22-27 = 320.00 ; Iteration 21 Energy -1710.56144496
C        4.1796139342   -0.6235779323    0.1021768198
C        4.4579266238    0.4495631587    0.9569191327
H        3.6940821972    0.8641924803    1.6230380823
N        5.6629363964    1.0058233130    0.9787463469
C        6.6231798495    0.5269185432    0.1643360788
H        7.5977289632    1.0232070826    0.2314110619
C        6.4428418751   -0.5235128733   -0.7301353600
H        7.2597686034   -0.8577424587   -1.3733378590
C        5.1750552727   -1.1261721330   -0.7763324592
C        4.5699258852   -2.1828586063   -1.5385041311
H        5.0420573951   -2.7951585941   -2.3032001119
C        3.2724480851   -2.2887924910   -1.1111824020
H        2.4860531167   -2.9745963235   -1.4201061836
N        3.0146529690   -1.3561481706   -0.1133573448
C        1.7920337690   -1.1769845487    0.5329990935
S        0.3111708164   -1.1187430083   -0.3915489457
C        1.5605597983   -0.9900324080    1.8761679607
H        2.3538907601   -1.0014524038    2.6226705402
C        0.1834138677   -0.7980910732    2.1691132898
H       -0.2060908667   -0.6225955676    3.1721465908
C       -0.6319970282   -0.8484030690    1.0572789182
C       -2.0802342424   -0.7797396945    1.0077162361
C       -2.9788050399   -1.2550632578    1.9504107477
H       -2.6635459717   -1.8071612219    2.8360489599
C       -4.3255724515   -0.9801705831    1.6165549934
H       -5.1941741465   -1.2741061709    2.2060691371
S       -2.9059270092    0.0335129390   -0.2920265311
C       -4.4540414972   -0.2989647919    0.4234921075
C       -5.7225329647    0.1109923004   -0.1963437722
O       -6.8152425018   -0.0958118991    0.2781641688
O       -5.5202713031    0.7520330073   -1.3651761376
C       -6.6899118941    1.1961525579   -2.0487227673
H       -7.2608179087    1.9030103435   -1.4275482763
H       -6.3407405486    1.6890068014   -2.9641894441
H       -7.3437705211    0.3463285950   -2.2971877515
35   
Scan Cycle 16/19 ; Dihedral 16-21-22-27 = 330.00 ; Iteration 20 Energy -1710.56186783
C        4.1586174334   -0.6834022662    0.0485311501
C        4.4748364992    0.3188934176    0.9732291058
H        3.7299768997    0.7046994117    1.6770556392
N        5.6942061711    0.8414687723    1.0182065302
C        6.6320553007    0.3976061588    0.1591470589
H        7.6199911954    0.8630040769    0.2481705375
C        6.4138369645   -0.5814932046   -0.8051304741
H        7.2140895007   -0.8895846303   -1.4814824195
C        5.1302831525   -1.1470232708   -0.8767743465
C        4.4889229569   -2.1309665491   -1.7039778883
H        4.9359931703   -2.6988138973   -2.5165386916
C        3.1942443921   -2.2344758128   -1.2679046632
H        2.3868577621   -2.8766805250   -1.6140996370
N        2.9723676419   -1.3691436036   -0.2028414133
C        1.7630950280   -1.2068318258    0.4715917254
S        0.2719622104   -1.0588705904   -0.4262852716
C        1.5521836294   -1.1039762082    1.8273207141
H        2.3540146929   -1.1807537622    2.5606963293
C        0.1837020511   -0.9055205290    2.1513126666
H       -0.1863026888   -0.7864015774    3.1697893222
C       -0.6485390460   -0.8716358317    1.0501535377
C       -2.0925814201   -0.7535303957    1.0268708370
C       -2.9842706318   -1.1256551440    2.0226147950
H       -2.6673566371   -1.6091847706    2.9468092747
C       -4.3298097261   -0.8462881345    1.6911603355
H       -5.1924962768   -1.0653804476    2.3205563291
S       -2.9265709467   -0.0390681921   -0.3246740725
C       -4.4675085638   -0.2675906883    0.4459547460
C       -5.7371328035    0.1212835552   -0.1834302431
O       -6.8249816524   -0.0146317964    0.3268295080
O       -5.5428473666    0.6536562121   -1.4072087878
C       -6.7148405493    1.0682007529   -2.1049620762
H       -7.2553579799    1.8405332354   -1.5368067452
H       -6.3724615229    1.4713969816   -3.0657702981
H       -7.3945065256    0.2177903510   -2.2673039883
35   
Scan Cycle 17/19 ; Dihedral 16-21-22-27 = 340.00 ; Iteration 18 Energy -1710.56195844
C        4.1478940948   -0.7406673967    0.0071101199
C        4.4972323113    0.1851394373    0.9972996885
H        3.7680774429    0.5394889002    1.7333439283
N        5.7302788368    0.6715775935    1.0678298981
C        6.6497305894    0.2657175417    0.1709787251
H        7.6502274031    0.6979875672    0.2835739289
C        6.3986009742   -0.6365269690   -0.8581251119
H        7.1853849264   -0.9162955805   -1.5620173105
C        5.1001220719   -1.1622587208   -0.9576442663
C        4.4269667870   -2.0681036026   -1.8465615811
H        4.8529710267   -2.5880727181   -2.7013847867
C        3.1333157325   -2.1691045159   -1.4070556718
H        2.3068463946   -2.7642571785   -1.7902883128
N        2.9421016998   -1.3761502811   -0.2812385181
C        1.7429980015   -1.2318132046    0.4143626811
S        0.2486933845   -0.9920211285   -0.4578357689
C        1.5443558189   -1.2150383266    1.7758359459
H        2.3492770022   -1.3586536059    2.4955892389
C        0.1832775085   -1.0120784505    2.1243128944
H       -0.1736161865   -0.9567826422    3.1527566736
C       -0.6584275345   -0.8911645324    1.0354270844
C       -2.0975560994   -0.7291700466    1.0355613699
C       -2.9748587524   -0.9948687994    2.0784077406
H       -2.6493884677   -1.3999209356    3.0365990244
C       -4.3211118000   -0.7162143789    1.7526904280
H       -5.1725461121   -0.8586650991    2.4183474868
S       -2.9499530669   -0.1220057927   -0.3564488279
C       -4.4768843532   -0.2449235664    0.4649291892
C       -5.7512808664    0.1190350182   -0.1682969760
O       -6.8299690957    0.0534065050    0.3745141456
O       -5.5736523228    0.5397544944   -1.4375271603
C       -6.7520505588    0.9209464465   -2.1432878166
H       -7.2619384599    1.7520810531   -1.6326814354
H       -6.4233714753    1.2317511093   -3.1424601292
H       -7.4541096138    0.0764361840   -2.2170057325
35   
Scan Cycle 18/19 ; Dihedral 16-21-22-27 = 350.00 ; Iteration 14 Energy -1710.56188797
C        4.1374296521   -0.7988348632   -0.0223321998
C        4.5179718418    0.0414729384    1.0306125707
H        3.8026943568    0.3621893714    1.7951157169
N        5.7650920137    0.4854347775    1.1286969971
C        6.6684579266    0.1199065794    0.1988093928
H        7.6816968606    0.5135332756    0.3363804570
C        6.3865450681   -0.6967337161   -0.8919960778
H        7.1617424401   -0.9467599523   -1.6195343778
C        5.0727967443   -1.1758293006   -1.0214204701
C        4.3695668473   -1.9939021445   -1.9701962840
H        4.7765602716   -2.4617353345   -2.8635380476
C        3.0753814524   -2.0893968101   -1.5312322034
H        2.2302503972   -2.6306606997   -1.9518183689
N        2.9121976871   -1.3761650322   -0.3489309555
C        1.7210835585   -1.2491469012    0.3629925777
S        0.2302024282   -0.9098308329   -0.4811473099
C        1.5282846514   -1.3217629710    1.7235478815
H        2.3314149633   -1.5371452828    2.4271584834
C        0.1740794201   -1.1128793081    2.0925720127
H       -0.1760042926   -1.1311441145    3.1245497367
C       -0.6702226154   -0.8970208803    1.0197113384
C       -2.1039852716   -0.6960504786    1.0411337108
C       -2.9593637456   -0.8460561771    2.1253529703
H       -2.6181426868   -1.1598879636    3.1117352309
C       -4.3075428774   -0.5688331120    1.8090997958
H       -5.1426936798   -0.6282983474    2.5071558733
S       -2.9827559142   -0.2031127298   -0.3794935411
C       -4.4888119172   -0.2113771372    0.4884043584
C       -5.7708772351    0.1262484914   -0.1429361755
O       -6.8361051915    0.1348865836    0.4297257851
O       -5.6179560230    0.4289419098   -1.4486915091
C       -6.8062061689    0.7744550081   -2.1561915896
H       -7.2836501779    1.6600044419   -1.7096954506
H       -6.4978428477    0.9869210708   -3.1871000995
H       -7.5285732828   -0.0558012055   -2.1364198801
35   
Scan Cycle 19/19 ; Dihedral 16-21-22-27 = 360.00 ; Iteration 19 Energy -1710.56185660
C        4.0947622666   -0.8772454727   -0.0316256119
C        4.5009981570   -0.1270750245    1.0782347656
H        3.7961504971    0.1586201038    1.8659697413
N        5.7609209199    0.2712534622    1.2045639927
C        6.6522538153   -0.0527992716    0.2480632069
H        7.6769137936    0.2994775970    0.4108163938
C        6.3452316394   -0.7796251051   -0.8981181096
H        7.1120678950   -0.9993496520   -1.6440658653
C        5.0176496664   -1.2087166722   -1.0580597427
C        4.2895317545   -1.9347297319   -2.0614305424
H        4.6816593613   -2.3486035910   -2.9874534028
C        2.9934222760   -2.0231706490   -1.6267742354
H        2.1321006699   -2.5070783986   -2.0829064689
N        2.8525517560   -1.3926708947   -0.3955403754
C        1.6665125019   -1.2823093235    0.3273030970
S        0.1865023262   -0.8366016232   -0.4855484390
C        1.4723221489   -1.4470816183    1.6796355475
H        2.2685968347   -1.7380673468    2.3635472027
C        0.1243222149   -1.2300855744    2.0655042477
H       -0.2276140515   -1.3282879231    3.0922759846
C       -0.7140981827   -0.9122671168    1.0132494403
C       -2.1419495271   -0.6755261987    1.0523921433
C       -2.9696554799   -0.7007338048    2.1680089337
H       -2.6062114969   -0.9133580446    3.1732239899
C       -4.3199860144   -0.4235038860    1.8619312738
H       -5.1353946459   -0.3932110214    2.5847544230
S       -3.0506696012   -0.3015617876   -0.3856924928
C       -4.5306310177   -0.1857140294    0.5188330368
C       -5.8209948561    0.1278048678   -0.1075435095
O       -6.8692073990    0.2178669317    0.4890604018
O       -5.6974519125    0.3053695810   -1.4392934788
C       -6.8961911768    0.6169431168   -2.1447547844
H       -7.3387233309    1.5524233489   -1.7698258488
H       -6.6118734595    0.7255244699   -3.1985075909
H       -7.6381694506   -0.1879078451   -2.0297786646
