16   
Scan Cycle 1/9 ; Dihedral 1-3-4-2 = 180.00 ; Iteration 15 Energy -1104.38413548
S        1.6770988974   -1.4448761171   -0.0827045908
S       -1.6771934594    1.4448459920   -0.0827249295
C        0.7261680061    0.0260245145   -0.0828010544
C       -0.7261789119   -0.0260127149   -0.0827978685
C        1.5589820447    1.1302928445   -0.0828942300
C       -1.5589469576   -1.1303059588   -0.0828675613
C        2.9436333979    0.7966895356   -0.0828789887
C       -2.9435794720   -0.7966166194   -0.0828526977
C        3.1625632109   -0.5577774412   -0.0830598835
C       -3.1626975718    0.5578174741   -0.0830567065
H        1.1830415148    2.1548599463   -0.0827566950
H       -1.1830104995   -2.1548754134   -0.0827135177
H        3.7466859690    1.5352637116   -0.0828989824
H       -3.7466033239   -1.5352180264   -0.0828562874
H        4.1128833368   -1.0895920483   -0.0828360174
H       -4.1130447686    1.0895889714   -0.0828382992
16   
Scan Cycle 2/9 ; Dihedral 1-3-4-2 = 157.50 ; Iteration 14 Energy -1104.38420489
S        1.6678331769   -1.4230408276    0.2573124551
S       -1.6681472799    1.4230559621    0.2573577077
C        0.7267345588    0.0236795525   -0.0362541543
C       -0.7267211818   -0.0234745991   -0.0362246321
C        1.5640778682    1.1053835370   -0.2373295583
C       -1.5639493941   -1.1052488628   -0.2372823216
C        2.9469748322    0.7705146571   -0.1666796630
C       -2.9468859120   -0.7705153131   -0.1666519275
C        3.1582952802   -0.5617962888    0.0857328755
C       -3.1585629021    0.5617381357    0.0857312491
H        1.1909196825    2.1089491647   -0.4482397949
H       -1.1906838102   -2.1087817383   -0.4481569072
H        3.7546291450    1.4906708445   -0.3066509244
H       -3.7544072816   -1.4908089831   -0.3066581346
H        4.1063288260   -1.0887321700    0.1840392643
H       -4.1066908803    1.0885167331    0.1840031368
16   
Scan Cycle 3/9 ; Dihedral 1-3-4-2 = 135.00 ; Iteration 18 Energy -1104.38335134
S        1.6384420142   -1.3688024628    0.5853938192
S       -1.6384467043    1.3687213019    0.5855793600
C        0.7289182017    0.0104622904    0.0088294210
C       -0.7289545303   -0.0104980327    0.0088500425
C        1.5851848283    1.0342638365   -0.3472808101
C       -1.5852238786   -1.0342965460   -0.3472674390
C        2.9611631973    0.7015227233   -0.1823159255
C       -2.9611938051   -0.7015159298   -0.1823213008
C        3.1451909773   -0.5689423407    0.3044749185
C       -3.1452058884    0.5689813720    0.3043920180
H        1.2284533622    1.9894253447   -0.7359665415
H       -1.2285041571   -1.9894622872   -0.7359551025
H        3.7837354836    1.3760942001   -0.4252579993
H       -3.7837776047   -1.3760660290   -0.4252829080
H        4.0837044578   -1.0811364620    0.5125617826
H       -4.0837134783    1.0812235117    0.5123870164
16   
Scan Cycle 4/9 ; Dihedral 1-3-4-2 = 112.50 ; Iteration 19 Energy -1104.38116020
S        1.5750552412   -1.3122348640    0.8858035369
S       -1.5756870595    1.3123969213    0.8857029151
C        0.7319778743   -0.0270530664    0.0486975690
C       -0.7318215886    0.0275762719    0.0488375355
C        1.6344342352    0.8779658789   -0.4709037252
C       -1.6341484940   -0.8775635080   -0.4706865795
C        2.9939161289    0.5246040000   -0.2256047262
C       -2.9938259010   -0.5247691067   -0.2255588615
C        3.1166999915   -0.6398135150    0.4916090725
C       -3.1172302548    0.6395418557    0.4916966996
H        1.3210670278    1.7644892507   -1.0245125006
H       -1.3204905550   -1.7639874111   -1.0242730793
H        3.8476044688    1.1080484117   -0.5742645641
H       -3.8472318289   -1.1085619321   -0.5743263002
H        4.0308746231   -1.1424937465    0.8053330451
H       -4.0316097099    1.1418736580    0.8053966669
16   
Scan Cycle 5/9 ; Dihedral 1-3-4-2 = 90.00 ; Iteration 14 Energy -1104.37952936
S        1.6090396525   -1.1019334107    1.2192597424
S       -1.6091763357    1.1018987390    1.2192542772
C        0.7345738689   -0.0184343892    0.1582381761
C       -0.7346265220    0.0184731317    0.1582280160
C        1.6159916263    0.7267797173   -0.5952757142
C       -1.6160154696   -0.7267252779   -0.5953319370
C        2.9846177408    0.4255804978   -0.3286012119
C       -2.9846639625   -0.4255776970   -0.3287085541
C        3.1341011219   -0.5445282280    0.6312107368
C       -3.1342116680    0.5444896321    0.6311341937
H        1.2804920050    1.4700009332   -1.3202575296
H       -1.2804733327   -1.4699108377   -1.3203297666
H        3.8243329390    0.9097290485   -0.8298280287
H       -3.8243449762   -0.9097284737   -0.8299906910
H        4.0598709031   -0.9643865505    1.0231879189
H       -4.0600060776    0.9643147572    1.0230893235
16   
Scan Cycle 6/9 ; Dihedral 1-3-4-2 = 67.50 ; Iteration 15 Energy -1104.38078561
S        1.6490091478   -0.8216354183    1.4960865662
S       -1.6490032065    0.8215857052    1.4960146693
C        0.7322073972    0.0037209147    0.2537784971
C       -0.7323700442   -0.0038845935    0.2536550732
C        1.5817766840    0.5357629973   -0.6939935173
C       -1.5818824478   -0.5358426043   -0.6942304172
C        2.9601787523    0.2996573021   -0.4139744259
C       -2.9602339627   -0.2995849729   -0.4141178949
C        3.1497154014   -0.4162494355    0.7418624572
C       -3.1497003141    0.4162962727    0.7417518432
H        1.2163750932    1.0928828078   -1.5579371151
H       -1.2165172119   -1.0929579863   -1.5581966726
H        3.7791492997    0.6548753369   -1.0415935658
H       -3.7792562770   -0.6546952645   -1.0417288897
H        4.0911225987   -0.7251574909    1.1947231931
H       -4.0910821762    0.7252608996    1.1946249188
16   
Scan Cycle 7/9 ; Dihedral 1-3-4-2 = 45.00 ; Iteration 14 Energy -1104.38270530
S        1.6483292864   -0.5642971367    1.6374362594
S       -1.6484108990    0.5642856090    1.6373982940
C        0.7289055412    0.0028203828    0.2599552583
C       -0.7289940229   -0.0028286187    0.2599182420
C        1.5785880584    0.3608765912   -0.7686634826
C       -1.5786543131   -0.3608568185   -0.7687343645
C        2.9567451461    0.1939887051   -0.4457213009
C       -2.9568255431   -0.1939821454   -0.4458521608
C        3.1493581028   -0.2888643481    0.8247740986
C       -3.1493964812    0.2888470573    0.8246603966
H        1.2146992517    0.7553234589   -1.7184291676
H       -1.2147346680   -0.7552845422   -1.7184960962
H        3.7749354947    0.4360392769   -1.1259804685
H       -3.7750104952   -0.4360148536   -1.1261255926
H        4.0908447796   -0.4954402323    1.3319858771
H       -4.0908865714    0.4954184730    1.3318656197
16   
Scan Cycle 8/9 ; Dihedral 1-3-4-2 = 22.50 ; Iteration 14 Energy -1104.38309353
S        1.6494568343   -0.3043438466    1.7270664540
S       -1.6494770999    0.3043481910    1.7270833898
C        0.7275712157   -0.0062759690    0.2692593784
C       -0.7276384042    0.0063059930    0.2692740370
C        1.5798164480    0.1867465875   -0.8029058120
C       -1.5799542528   -0.1866937991   -0.8028554187
C        2.9571921620    0.0964643664   -0.4526254541
C       -2.9574126327   -0.0964827480   -0.4528877136
C        3.1513349036   -0.1566688898    0.8824820816
C       -3.1512350609    0.1566255805    0.8822746419
H        1.2216523074    0.4094036305   -1.8087973591
H       -1.2217139876   -0.4093284200   -1.8087207899
H        3.7747453563    0.2256603435   -1.1636802452
H       -3.7749706650   -0.2256710251   -1.1639479215
H        4.0917493112   -0.2651205158    1.4207712006
H       -4.0916245760    0.2650583491    1.4206014272
16   
Scan Cycle 9/9 ; Dihedral 1-3-4-2 = 0.00 ; Iteration 14 Energy -1104.38274876
S        1.6556383344   -0.0038586694    1.7379386915
S       -1.6558469550    0.0037765315    1.7379335942
C        0.7276599557   -0.0016638939    0.2536046873
C       -0.7275493890    0.0016080688    0.2538091466
C        1.5785722100   -0.0041909569   -0.8378948917
C       -1.5785725899    0.0041911676   -0.8375850094
C        2.9565714911   -0.0088527281   -0.4813786259
C       -2.9566931834    0.0089179825   -0.4815023023
C        3.1551472990   -0.0081166785    0.8768318849
C       -3.1553119958    0.0081320808    0.8766937562
H        1.2214748333   -0.0041799707   -1.8683016209
H       -1.2213652593    0.0041802081   -1.8679452282
H        3.7715246518   -0.0119732593   -1.2069384146
H       -3.7715330216    0.0121274851   -1.2071944523
H        4.0965016466   -0.0100909597    1.4241364229
H       -4.0967131573    0.0100060384    1.4239183933
